LTspice 24.0.12 for Windows
Circuit: * C:\Users\PEARLLAB1\anaconda3\FEMM_to_LTspice\Boost_Converter_V0.asc
Start Time: Wed Aug 28 18:28:12 2024
solver = Normal
Maximum thread count: 8
tnom = 27
temp = 27
method = modified trap
WARNING: Less than two connections to node n5v.  This node is used by v3.
.OP point found by inspection.
Total elapsed time: 1.822 seconds.

